Version 4
SHEET 1 4944 2476
WIRE 864 -1472 800 -1472
WIRE 912 -1472 864 -1472
WIRE 976 -1472 912 -1472
WIRE 1392 -1472 1072 -1472
WIRE 1408 -1472 1392 -1472
WIRE 1504 -1472 1488 -1472
WIRE 1552 -1472 1504 -1472
WIRE 1568 -1472 1552 -1472
WIRE 1552 -1456 1552 -1472
WIRE 912 -1392 912 -1472
WIRE 928 -1392 912 -1392
WIRE 1024 -1392 1024 -1408
WIRE 1024 -1392 1008 -1392
WIRE 1024 -1328 1024 -1392
WIRE 864 -1216 864 -1472
WIRE 896 -1216 864 -1216
WIRE 1280 -1216 1152 -1216
WIRE 1296 -1216 1280 -1216
WIRE 1392 -1216 1392 -1472
WIRE 1392 -1216 1376 -1216
WIRE 864 -1200 864 -1216
WIRE 1392 -1200 1392 -1216
WIRE 1024 -1072 1024 -1104
WIRE 1024 -1072 992 -1072
WIRE 992 -1040 992 -1072
WIRE 1024 -1008 1024 -1072
WIRE 1056 -1008 1024 -1008
WIRE 864 -928 864 -1136
WIRE 992 -928 992 -976
WIRE 992 -928 864 -928
WIRE 1056 -928 992 -928
WIRE 1392 -928 1392 -1136
WIRE 1392 -928 1056 -928
WIRE 1552 -928 1552 -1376
WIRE 1552 -928 1392 -928
WIRE 864 -912 864 -928
WIRE 800 -768 800 -1472
WIRE 864 -768 800 -768
WIRE 912 -768 864 -768
WIRE 976 -768 912 -768
WIRE 1392 -768 1072 -768
WIRE 1408 -768 1392 -768
WIRE 1504 -768 1504 -1472
WIRE 1504 -768 1488 -768
WIRE 800 -752 800 -768
WIRE 912 -688 912 -768
WIRE 928 -688 912 -688
WIRE 1024 -688 1024 -704
WIRE 1024 -688 1008 -688
WIRE 1024 -624 1024 -688
WIRE 864 -512 864 -768
WIRE 896 -512 864 -512
WIRE 1280 -512 1152 -512
WIRE 1296 -512 1280 -512
WIRE 1392 -512 1392 -768
WIRE 1392 -512 1376 -512
WIRE 864 -496 864 -512
WIRE 1392 -496 1392 -512
WIRE 1024 -368 1024 -400
WIRE 1024 -368 992 -368
WIRE 992 -336 992 -368
WIRE 1024 -304 1024 -368
WIRE 1056 -304 1024 -304
WIRE 800 -224 800 -672
WIRE 864 -224 864 -432
WIRE 864 -224 800 -224
WIRE 992 -224 992 -272
WIRE 992 -224 864 -224
WIRE 1056 -224 992 -224
WIRE 1392 -224 1392 -432
WIRE 1392 -224 1056 -224
WIRE 864 -208 864 -224
FLAG 800 -1472 +VIN
FLAG 1280 -1216 Vout1
FLAG 864 -208 0
FLAG 1568 -1472 +VOUT_MP
FLAG 1680 -400 0
FLAG 1280 -512 Vout2
FLAG 864 -912 0
FLAG 1568 -400 0
FLAG 1568 -480 SP
FLAG 1392 -1472 V1
FLAG 1392 -768 V2
DATAFLAG 1536 -1472 "round($/1m)*1m"
DATAFLAG 1216 -1216 "round($/1m)*1m"
DATAFLAG 1216 -512 "round($/1m)*1m"
SYMBOL res 1536 -1472 R0
SYMATTR InstName R12
SYMATTR Value 350m
SYMBOL voltage 800 -768 M0
SYMATTR InstName V1
SYMATTR Value 7.5
SYMBOL voltage 1392 -1216 R90
WINDOW 0 -32 56 VBottom 2
WINDOW 3 32 56 Invisible 2
WINDOW 123 66 57 VBottom 2
WINDOW 39 0 0 Left 0
SYMATTR InstName V3
SYMATTR Value 0
SYMATTR Value2 AC 1
SYMBOL pnp 1072 -1408 M270
SYMATTR InstName Q1
SYMATTR Value MJE2955
SYMBOL res 1024 -1408 R90
WINDOW 0 0 56 VBottom 2
WINDOW 3 32 56 VTop 2
SYMATTR InstName R5
SYMATTR Value 47
SYMBOL res 1040 -1104 R0
SYMATTR InstName R6
SYMATTR Value R = 500k*(1-V(SP))
SYMBOL res 1040 -1024 R0
SYMATTR InstName R7
SYMATTR Value R = 500k*V(SP)
SYMBOL voltage 1680 -496 R0
WINDOW 123 0 0 Left 0
WINDOW 39 0 0 Left 0
SYMATTR InstName V4
SYMATTR Value PULSE(1m .999 0 1u 1u 10m 20m)
SYMBOL cap 1008 -1040 M0
SYMATTR InstName C1
SYMATTR Value 1n
SYMBOL voltage 1392 -512 R90
WINDOW 0 -32 56 VBottom 2
WINDOW 3 32 56 Invisible 2
WINDOW 123 66 57 VBottom 2
WINDOW 39 0 0 Left 0
SYMATTR InstName V2
SYMATTR Value 0
SYMATTR Value2 AC 1
SYMBOL pnp 1072 -704 M270
SYMATTR InstName Q2
SYMATTR Value MJE2955
SYMBOL res 1024 -704 R90
WINDOW 0 0 56 VBottom 2
WINDOW 3 32 56 VTop 2
SYMATTR InstName R1
SYMATTR Value 47
SYMBOL res 1040 -400 R0
SYMATTR InstName R2
SYMATTR Value R = 500k*(1-V(SP))
SYMBOL res 1040 -320 R0
SYMATTR InstName R3
SYMATTR Value R = 500k*V(SP)
SYMBOL cap 1008 -336 M0
SYMATTR InstName C2
SYMATTR Value 1n
SYMBOL res 1504 -1488 R90
WINDOW 0 0 56 VBottom 2
WINDOW 3 32 56 VTop 2
SYMATTR InstName R4
SYMATTR Value 20m
SYMBOL res 1504 -784 R90
WINDOW 0 0 56 VBottom 2
WINDOW 3 32 56 VTop 2
SYMATTR InstName R8
SYMATTR Value 20m
SYMBOL voltage 1568 -496 R0
WINDOW 123 0 0 Left 0
WINDOW 39 0 0 Left 0
WINDOW 3 24 44 Left 2
SYMATTR Value {SP}
SYMATTR InstName V5
SYMBOL cap 1376 -1200 R0
SYMATTR InstName C3
SYMATTR Value 2µ2
SYMBOL PowerProducts\\LT3080 1024 -512 R0
SYMATTR InstName U2
SYMBOL PowerProducts\\LT3080 1024 -1216 R0
SYMATTR InstName U1
SYMBOL cap 880 -1200 M0
SYMATTR InstName C4
SYMATTR Value 1µ
SYMBOL cap 880 -496 M0
SYMATTR InstName C5
SYMATTR Value 1µ
SYMBOL cap 1376 -496 R0
SYMATTR InstName C6
SYMATTR Value 2µ2
TEXT 1120 -1712 Left 2 !.OPTIONS nomarch\n.options plotwinsize 0\n.options numdgt 7\n.options maxstep 100u\n;.tran 0 50m 0\n.ac dec 100 0.1 100MEG
TEXT 1528 -344 Left 2 !.meas PM FIND V(v1)/V(vout1) WHEN mag(V(v1)/V(vout1))=1\n \n.meas GM FIND V(v1)/V(vout1) WHEN ph(V(v1)/V(vout1))=0
TEXT 1008 -1088 Right 2 ;10µA
TEXT 952 -200 Left 2 ;C can be used to\nimprove transient response
TEXT 1008 -384 Right 2 ;10µA
TEXT 1528 -592 Left 2 !.step param SP 1m 999m 10m
